LAMMPS (5 Jun 2019)

# ----------------- Init Section -----------------

include "system.in.init"
        units lj
        atom_style angle
        pair_style hybrid dpd 3.0 2.5 583235
        bond_style hybrid harmonic
        angle_style hybrid harmonic
        special_bonds lj 0.0 0.0 0.0

# ----------------- Atom Definition Section -----------------

read_data "system.data"
  orthogonal box = (0 0 0) to (40 40 40)
  reading atoms ...
  2000 atoms
  scanning bonds ...
  scanning angles ...
  reading bonds ...
  1600 bonds
  reading angles ...
  1200 angles

# ----------------- Settings Section -----------------

include "system.in.settings"
        pair_coeff 1 1 dpd 3.0 1.0
        pair_coeff 2 2 dpd 3.0 1.0
pair_coeff 1 2 dpd 8.0 1.0

        bond_coeff 1 harmonic 1000 0.4

        angle_coeff 1 harmonic 20 180
        angle_coeff 2 harmonic 20 180
        angle_coeff 3 harmonic 20 180
        angle_coeff 4 harmonic 20 180
        angle_coeff 5 harmonic 20 180
        angle_coeff 6 harmonic 20 180
        angle_coeff 7 harmonic 20 180
        angle_coeff 8 harmonic 20 180

# ----------------- Run Section -----------------

include "system.in.run"
  dump dxyz all atom 1000 poly.lammpstrj

  comm_modify vel yes
  thermo   200
  minimize 1.0e-6 1.0e-8 10000 100000
  update every 1 steps, delay 0 steps, check yes
Step Temp E_pair E_mol TotEng Press
0            0    35.908091    19.054415    54.962507    1.5697087
Loop time of 10.4349 on 1 procs for 1077 steps with 2000 atoms

Minimization stats:
  Stopping criterion = energy tolerance
  Energy initial, next-to-last, final =
  Force two-norm initial, final = 10739.7 1010.86
  Force max component initial, final = 632.292 68.1433
  Final line search alpha, max atom move = 1.08055e-06 7.36323e-05
  Iterations, force evaluations = 1077 3895

  timestep 0.001
  velocity        all create 3.0 49840
  fix      fxnve  all nve
  run   500000
Step Temp E_pair E_mol TotEng Press
1077            3    1.1180815  0.018111048    5.6339425   0.18354731
Averages over the last 1251 of 2502 rows, steps 251200 to 501077:
Temp E_pair E_mol TotEng Press
3.01216 0.145174 2.95736 7.61851 0.0231843
Loop time of 245.215 on 1 procs for 500000 steps with 2000 atoms

# ----------------- Run Section -----------------

# The lines above define the system you want to simulate.
# What you do next is up to you.
# Typically a user would minimize and equilibrate
# the system using commands similar to the following:
#  ----   examples   ----
#
#  -- minimize --
# minimize 1.0e-5 1.0e-7 1000 10000
# (Note: Some fixes, for example "shake", interfere with the minimize command,
#        You can use the "unfix" command to disable them before minimization.)
#  -- declare time step for normal MD --
# timestep 1.0
#  -- run at constant pressure (Nose-Hoover)--
# fix   fxnpt all npt temp 300.0 300.0 100.0 iso 1.0 1.0 1000.0 drag 1.0
#  -- ALTERNATELY, run at constant volume (Nose-Hoover) --
# fix   fxnvt all nvt temp 300.0 300.0 500.0 tchain 1
#  -- ALTERNATELY, run at constant volume using Langevin dynamics. --
#  -- (This is good for sparse CG polymers in implicit solvent.)   --
# fix fxLAN all langevin 300.0 300.0 5000 48279
# fix fxNVE all nve  #(<--needed by fix langevin)
#  -- Now, finally run the simulation --
# run   50000
#  ---- (end of examples) ----
